<routes>
   <vType id="car" type="passenger" length="5" accel="3.5" decel="2.2" sigma="1.0" maxSpeed="50" carFollowModel="Krauss" minGap="5.56" speedDev="0"/>
   <flow id="carflow1" type="car" beg="0" end="0" number="1500" departSpeed="random" departLane="free" departPos="random_free" from="gneE50" to="gneE53"/>
   <flow id="carflow2" type="car" beg="0" end="0" number="1500" departSpeed="random" departLane="free" departPos="random_free" from="gneE50" to="gneE53"/>
   <flow id="carflow3" type="car" beg="0" end="0" number="1500" departSpeed="random" departLane="free" departPos="random_free" from="gneE52" to="gneE51"/>
   <flow id="carflow4" type="car" beg="0" end="0" number="1500" departSpeed="random" departLane="free" departPos="random_free" from="gneE52" to="gneE51"/>
</routes>
